data/projects/3mgs/circuit_plusmg_2.dss
clear
set defaultbasefrequency=60
new object=circuit.lehigh basekv=115 pu=1.0001 phases=3 bus1=sourcebus angle=30 mvasc3=20000 mvasc1=21000
edit object=vsource.source basekv=115 bus1=sourcebus.1.2.3 pu=1.00 r1=0 x1=0.0001 r0=0 x0=0.0001
new object=vsource.secondsource basekv=4.16 bus1=680.1.2.3 pu=1.00 r1=0 x1=0.0001 r0=0 x0=0.0001
new object=transformer.sub phases=3 windings=2 xhl=0.008 buses=[sourcebus.1.2.3,650.1.2.3] conns=[delta,wye] kvs=[115,4.16] kvas=[5000,5000] %rs=[0.0005,0.0005]
new object=transformer.reg1 phases=1 bank=reg1 xhl=0.01 kvas=[1666,1666] buses=[650.1,rg60.1] kvs=[2.4,2.4] %loadloss=0.01
new object=regcontrol.reg1 transformer=reg1 winding=2 vreg=121 band=2 ptratio=20 ctprim=700 r=3 x=9
new object=transformer.reg2 phases=1 bank=reg1 xhl=0.01 kvas=[1666,1666] buses=[650.2,rg60.2] kvs=[2.4,2.4] %loadloss=0.01
new object=regcontrol.reg2 transformer=reg2 winding=2 vreg=121 band=2 ptratio=20 ctprim=700 r=3 x=9
new object=transformer.reg3 phases=1 bank=reg1 xhl=0.01 kvas=[1666,1666] buses=[650.3,rg60.3] kvs=[2.4,2.4] %loadloss=0.01
new object=regcontrol.reg3 transformer=reg3 winding=2 vreg=121 band=2 ptratio=20 ctprim=700 r=3 x=9
new object=transformer.xfm1 phases=3 windings=2 xhl=2 buses=[633.1.2.3,634.1.2.3] conns=[wye,wye] kvs=[4.16,0.480] kvas=[500,500] %rs=[0.55,0.55] xht=1 xlt=1
new object=linecode.mtx601 nphases=3 basefreq=60 rmatrix=[0.3465|0.1560,0.3375|0.1580,0.1535,0.3414] xmatrix=[1.0179|0.5017,1.0478|0.4236,0.3849,1.0348] units=mi
new object=linecode.mtx602 nphases=3 basefreq=60 rmatrix=[0.7526|0.1580,0.7475|0.1560,0.1535,0.7436] xmatrix=[1.1814|0.4236,1.1983|0.5017,0.3849,1.2112] units=mi
new object=linecode.mtx603 nphases=2 basefreq=60 rmatrix=[1.3238|0.2066,1.3294] xmatrix=[1.3569|0.4591,1.3471] units=mi
new object=linecode.mtx604 nphases=2 basefreq=60 rmatrix=[1.3238|0.2066,1.3294] xmatrix=[1.3569|0.4591,1.3471] units=mi
new object=linecode.mtx605 nphases=1 basefreq=60 rmatrix=[1.3292] xmatrix=[1.3475] units=mi
new object=linecode.mtx606 nphases=3 units=mi rmatrix=[0.791721|0.318476,0.781649|0.28345,0.318476,0.791721] xmatrix=[0.438352|0.0276838,0.396697|-0.0184204,0.0276838,0.438352] cmatrix=[383.948|0,383.948|0,0,383.948]
new object=linecode.mtx607 nphases=1 basefreq=60 rmatrix=[1.3425] xmatrix=[0.5124] cmatrix=[236] units=mi
new object=loadshape.solar_634_shape npts=8760 interval=1 useactual=yes mult=[0.0,0.0,0.0,0.0,0.0,0.0,0.0,0.0,1.7505977969201392,5.307848880579582,7.49249797028866,23.023403681086855,5.27982113567,12.338015310963328,18.457911287301624,19.872428647513164,9.929144261977587,0.6582732520655997,0.0,0.0,0.0,0.0,0.0,0.0,0.0,0.0,0.0,0.0,0.0,0.0,0.0,0.0,4.593520138694817,11.665854437546134,16.329317687411713,0.6441331285076122,35.05336630025118,12.533957023124014,45.51478521330444,31.300173504431044,16.525259399572395,1.414517360211542,0.0,0.0,0.0,0.0,0.0,0.0,0.0,0.0,0.0,0.0,0.0,0.0,0.0,0.0,13.47250772428544,31.41228448406937,41.73356467257473,17.687779557804088,31.454199850330557,31.3701166156018,25.62846894443968,22.253271951589323,11.679742058897729,0.9244105776034371,0.0,0.0,0.0,0.0,0.0,0.0,0.0,0.0,0.0,0.0,0.0,0.0,0.0,0.0,20.502674154669183,46.97121793977716,66.68962024139081,75.83853268561518,74.39472506946207,65.51018243533082,54.86620442705568,54.59703707504112,29.94171163403867,5.882038897916434,0.0,0.0,0.0,0.0,0.0,0.0,0.0,0.0,0.0,0.0,0.0,0.0,0.0,0.0,22.2951873178505,49.74419717038107,69.9948741230704,82.2626938206566,81.83621759405943,80.9489248407957,61.704721682787415,55.78026241419701,30.221736580928106,5.741900173368521,0.0,0.0,0.0,0.0,0.0,0.0,0.0,0.0,0.0,0.0,0.0,0.0,0.0,0.0,17.617836446633326,41.71967705122313,65.4011014821692,58.60904463241371,66.25556894860188,68.34224718223062,68.60838450776845,52.05484486108008,28.17722621576693,5.265681012112012,0.0,0.0,0.0,0.0,0.0,0.0,0.0,0.0,0.0,0.0,0.0,0.0,0.0,0.0,17.88372126996477,17.757722668974846,63.45456197308837,72.78174097502593,65.17738452730532,62.404405296701405,52.60100713350735,26.88870745654532,14.200724087521795,1.5124882162918842,0.0,0.0,0.0,0.0,0.0,0.0,0.0,0.0,0.0,0.0,0.0,0.0,0.0,0.0,18.205914085321776,42.44789341445949,11.203522897641218,14.760773981300662,33.03688367999959,38.274536947202016,31.35622899425021,20.32062006386009,10.783611728410268,1.2463508907540466,0.0,0.0,0.0,0.0,0.0,0.0,0.0,0.0,0.0,0.0,0.0,0.0,0.0,0.0,18.710160991487868,42.95188781841919,23.023403681086855,48.97406544088354,38.35836767972437,17.911749014874356,22.967600693474083,19.21415539544757,9.95717200688717,4.705631118333147,0.0,0.0,0.0,0.0,0.0,0.0,0.0,0.0,0.0,0.0,0.0,0.0,0.0,0.0,8.668905749871948,21.427084732272625,34.521344151381896,59.16934702839897,34.3392900605728,44.84262433988725,45.54281295821403,36.747908607352144,20.502674154669183,3.5991664499206206,0.0,0.0,0.0,0.0,0.0,0.0,0.0,0.0,0.0,0.0,0.0,0.0,0.0,0.0,22.57546476694632,49.96816662745134,69.93881863325124,79.62631828371109,78.85189401670488,73.59555558622938,60.97398029748713,57.54474783246874,34.15723596976371,8.416656045685706,0.0,0.0,0.0,0.0,0.0,0.0,0.0,0.0,0.0,0.0,0.0,0.0,0.0,0.0,20.85289471493577,47.36335386630492,66.46565078432054,74.03945446506764,70.84656406523277,61.39439647113087,50.140878136623904,49.886355912580136,33.3588239931502,8.290657444695782,0.0,0.0,0.0,0.0,0.0,0.0,0.0,0.0,0.0,0.0,0.0,0.0,0.0,0.0,20.40470329858884,46.83133171743563,65.94751625680286,60.83586159059036,67.5299475842655,61.40979910572082,55.41590173037245,44.212378832731225,26.23043420447972,6.344117935614957,0.0,0.0,0.0,0.0,0.0,0.0,0.0,0.0,0.0,0.0,0.0,0.0,0.0,0.0,8.500739280414452,20.138565973051005,36.4959114053723,46.52302652343023,53.30144825404052,48.91800995106438,28.933470323912875,23.555678332162536,13.290453633476348,2.170761468357484,0.0,0.0,0.0,0.0,0.0,0.0,0.0,0.0,0.0,0.0,0.0,0.0,0.0,0.0,4.481409159056487,12.029962619164314,55.87823327027736,67.89178324602615,73.38749376816186,69.84918034998185,53.45749461759117,52.88305209804792,32.44855353910475,8.206574209967032,0.0,0.0,0.0,0.0,0.0,0.0,0.0,0.0,0.0,0.0,0.0,0.0,0.0,0.0,18.55613464558836,43.12005428787669,60.82172146703237,51.43873947748205,60.45761328541419,74.98608523683362,47.57343570202359,21.735137424071635,12.169848841505834,2.1987892132670663,0.0,0.0,0.0,0.0,0.0,0.0,0.0,0.0,0.0,0.0,0.0,0.0,0.0,0.0,19.186127650537983,46.14503072046045,67.36178111480801,82.09477985340548,81.47665445215631,80.52169110757936,61.360056171061466,58.02096699372526,33.97518187895462,8.850959840681037,0.0,0.0,0.0,0.0,0.0,0.0,0.0,0.0,0.0,0.0,0.0,0.0,0.0,0.0,20.95086557101611,47.19543989905382,68.28619169241145,80.87645670756103,80.98528515851625,81.36252345486685,60.69193533294655,58.86104183439355,34.57714713899466,9.13098478757047,0.0,0.0,0.0,0.0,0.0,0.0,0.0,0.0,0.0,0.0,0.0,0.0,0.0,0.0,22.099245605689816,49.5482554582204,69.49062721690433,81.36656349016911,83.30022538672392,83.78199959652108,62.64251487732966,59.04334842740904,36.32774493591481,9.95717200688717,0.0,0.0,0.0,0.0,0.0,0.0,0.0,0.0,0.0,0.0,0.0,0.0,0.0,0.0,21.69296955560407,48.3857352999887,67.65594618525543,79.22382976672122,83.399963758249,81.04437067481211,70.96246257796697,56.9705578151319,34.521344151381896,9.285011133469975,0.0,0.0,0.0,0.0,0.0,0.0,0.0,0.0,0.0,0.0,0.0,0.0,0.0,0.0,5.587873827469014,13.990642251803123,21.188975151644367,12.099905730335074,35.08139404516076,9.354954244640735,9.761230294726488,0.1401387245479124,0.0,0.0,0.0,0.0,0.0,0.0,0.0,0.0,0.0,0.0,0.0,0.0,0.0,0.0,0.0,0.0,5.153570032473683,15.13902228647683,42.78397385116809,45.69683930411352,73.63267341056911,74.26493893537626,39.88499601957425,34.60517488390425,20.124678351699405,4.467521537704893,0.0,0.0,0.0,0.0,0.0,0.0,0.0,0.0,0.0,0.0,0.0,0.0,0.0,0.0,5.82598340809727,15.110994541567248,17.561780956814165,43.70813192656513,84.67812992700853,85.49749958675264,80.9183720738222,63.87497814673211,38.54067427273986,10.923497950751788,0.0,0.0,0.0,0.0,0.0,0.0,0.0,0.0,0.0,0.0,0.0,0.0,0.0,0.0,23.10748691581561,50.87868958370319,70.90489207490947,82.9068269491642,83.4486966840828,83.90067563352561,63.53031263500617,60.90580470176112,38.14853834621209,11.175747654938029,0.0,0.0,0.0,0.0,0.0,0.0,0.0,0.0,0.0,0.0,0.0,0.0,0.0,0.0,22.015162370961068,48.62384488061696,67.64205856390384,79.27963275433399,83.70246140150739,81.75844691449049,70.89756951092407,58.58101688750413,36.62191000636222,10.797499349761862,0.0,0.0,0.0,0.0,0.0,0.0,0.0,0.0,0.0,0.0,0.0,0.0,0.0,0.0,14.606747635401154,33.48482259414013,38.59647726035263,57.2927506304889,64.14111547226995,61.46610709774637,55.96231650500611,41.15937465523788,25.20830527300233,7.198332899841241,0.0,0.0,0.0,0.0,0.0,0.0,0.0,0.0,0.0,0.0,0.0,0.0,0.0,0.0,17.365586742447086,40.57129701654942,39.31080600223739,73.01985055565419,77.03892817480575,55.89212089162896,7.758635295826498,54.33771730907589,32.098332978838165,9.033013931490128,0.0,0.0,0.0,0.0,0.0,0.0,0.0,0.0,0.0,0.0,0.0,0.0,0.0,0.0,4.91571295405182,7.912661641726006,11.931991763083971,18.44402366595003,14.564832269139975,10.111198352786678,10.251337077334592,3.977414755096788,2.044762867367559,0.0419153662611774,0.0,0.0,0.0,0.0,0.0,0.0,0.0,0.0,0.0,0.0,0.0,0.0,0.0,0.0,23.135514660725192,47.035858504613664,55.79389753334223,61.32394835554732,53.27695554002044,46.24426408757276,45.92156626780297,45.41226931750902,38.24650920229244,12.114045853893062,0.0,0.0,0.0,0.0,0.0,0.0,0.0,0.0,0.0,0.0,0.0,0.0,0.0,0.0,21.973247004699893,48.58192951435577,67.97813900061243,78.39537002754697,76.70916029325696,69.62798841718191,56.043369713258144,47.83957302756143,31.83244815550672,12.029962619164314,0.0,0.0,0.0,0.0,0.0,0.0,0.0,0.0,0.0,0.0,0.0,0.0,0.0,0.0,6.862252463132644,21.04883642709645,35.8376381533067,36.27168944609564,46.66316524797814,44.07224010818331,39.7870251634939,28.625417632113862,17.561780956814165,5.041711555041745,0.0,0.0,0.0,0.0,0.0,0.0,0.0,0.0,0.0,0.0,0.0,0.0,0.0,0.0,23.121627039373596,50.82263409388403,72.02549686687999,80.09167985009272,78.47617073359262,70.5430564131488,57.56772553325048,57.2962856613784,39.68880180520716,13.24828576500878,0.0,0.0,0.0,0.0,0.0,0.0,0.0,0.0,0.0,0.0,0.0,0.0,0.0,0.0,23.20545777189595,49.47805984484324,68.63641225267803,80.42826529121407,79.9371484997804,77.8772355000293,59.57865310496143,59.00294807438622,39.67491418385558,13.500282966988628,0.0,0.0,0.0,0.0,0.0,0.0,0.0,0.0,0.0,0.0,0.0,0.0,0.0,0.0,23.037543804644844,19.9845396271515,46.87324708369681,58.24493645079552,66.46565078432054,65.10718891392817,56.08831510599603,16.063180361873872,11.609798947726969,7.660411937539763,0.0,0.0,0.0,0.0,0.0,0.0,0.0,0.0,0.0,0.0,0.0,0.0,0.0,0.0,0.0,17.799890537442415,47.99359937346093,67.30597812719523,77.64695348779921,78.3847649348785,77.06140087117468,57.01954324317207,41.20129002149905,14.494636655762823,0.0,0.0,0.0,0.0,0.0,0.0,0.0,0.0,0.0,0.0,0.0,0.0,0.0,0.0,16.637370379210726,44.36640517863073,60.68865280426345,65.1165314955647,65.53846268244679,49.23338520684877,48.1594933230609,47.18180477990862,24.81616934647457,12.07187798542549,0.0,0.0,0.0,0.0,0.0,0.0,0.0,0.0,0.0,0.0,0.0,0.0,0.0,0.0,12.240044454882986,16.245234452682965,12.240044454882986,18.44402366595003,12.212016709973405,50.99054806113512,46.439195790907874,33.70904455341679,11.70776980380731,1.6104590723722267,0.0,0.0,0.0,0.0,0.0,0.0,0.0,0.0,0.0,0.0,0.0,0.0,0.0,0.0,0.9102704540454496,5.882038897916434,9.20092789874123,32.92477270036126,39.6329988175944,18.457911287301624,26.734681110645813,11.651714313988148,7.072334298851317,13.318228876179536,0.0,0.0,0.0,0.0,0.0,0.0,0.0,0.0,0.0,0.0,0.0,0.0,0.0,0.0,5.797955663187687,5.517678214091862,21.39905698736304,41.91561876338382,38.442450914453126,48.09157022954128,52.559091767246166,63.38487136412401,40.97732056442879,14.704718491481495,0.0,0.0,0.0,0.0,0.0,0.0,0.0,0.0,0.0,0.0,0.0,0.0,0.0,0.0,4.649575628513983,11.805740659887656,22.08510548213183,76.0566945919384,30.866122211642104,30.69795574218461,34.843284464532495,26.21654658312812,0.6441331285076122,13.66844943644612,0.0,0.0,0.0,0.0,0.0,0.0,0.0,0.0,0.0,0.0,0.0,0.0,0.0,0.0,7.436442480469496,33.05077130135118,69.32195574303404,74.70656529435698,72.21133849078495,59.366298749385216,51.09028643266022,50.44211326885032,42.896084830806416,16.175291341512203,0.0,0.0,0.0,0.0,0.0,0.0,0.0,0.0,0.0,0.0,0.0,0.0,0.0,2.366703180518168,27.266955761721483,54.42180054380464,69.37649621961484,74.62803710816885,67.0229231538291,51.59377583220713,51.1183141775698,50.42342810557727,44.36640517863073,17.001478560828904,0.0,0.0,0.0,0.0,0.0,0.0,0.0,0.0,0.0,0.0,0.0,0.0,0.0,2.4088710489857386,26.286489694298886,45.62866370838751,54.54931415803292,60.5636642120991,53.05475359839492,46.16220087049516,45.64760137386697,45.10093409702691,42.81200159607767,16.48334403331122,0.0,0.0,0.0,0.0,0.0,0.0,0.0,0.0,0.0,0.0,0.0,0.0,0.0,3.038864053935363,27.631063943339665,54.43568816515624,73.6119682296449,79.48365453709924,77.82597755213159,64.32645209176214,56.76956605884337,54.71571311204567,43.20413752260544,9.326926499731156,0.0,0.0,0.0,0.0,0.0,0.0,0.0,0.0,0.0,0.0,0.0,0.0,0.0,0.0560554898191649,15.3491041221955,35.13744953497992,49.660113935652326,56.53650652234296,66.73153560765199,70.62511963022644,46.97121793977716,41.313401001137386,29.283438381973067,9.929144261977587,0.0,0.0,0.0,0.0,0.0,0.0,0.0,0.0,0.0,0.0,0.0,0.0,0.0,0.6721608734171945,24.732086111745826,49.59017082448157,69.49062721690433,81.61881319435537,80.59769427170356,79.08394354437971,60.48185349722789,60.13592547446997,40.24910420119243,15.559185957914172,0.0,0.0,0.0,0.0,0.0,0.0,0.0,0.0,0.0,0.0,0.0,0.0,0.0,0.0,3.683249684649368,5.223765645850834,16.567427268039967,23.177430026986368,24.71794598818784,29.92782401268708,19.06012904954806,16.53939952313038,17.60369632307534,6.540059647775641,0.0,0.0,0.0,0.0,0.0,0.0,0.0,0.0,0.0,0.0,0.0,0.0,0.0,0.0,0.4060235478793572,18.065775360773863,32.14050084730574,41.6075660715848,62.92253982421909,71.89949826589005,56.256229073247134,69.58885057519105,26.258461949389297,8.990846063022557,0.0,0.0,0.0,0.0,0.0,0.0,0.0,0.0,0.0,0.0,0.0,0.0,0.0,2.9550333214130085,9.172900153831648,19.774457791432823,34.85742458809049,48.24559657544079,83.39617622515313,85.17379175815728,82.0806397298475,67.45975197088836,45.51478521330444,18.359940431221283,0.0,0.0,0.0,0.0,0.0,0.0,0.0,0.0,0.0,0.0,0.0,0.0,0.0,3.781220540729711,28.05122761477701,54.25363407434715,64.94407248859852,68.83462648469626,64.1191477803138,55.20329487258984,55.16264201736063,54.462453399033855,44.07224010818331,17.869833648613177,0.0,0.0,0.0,0.0,0.0,0.0,0.0,0.0,0.0,0.0,0.0,0.0,0.0,3.445140104021113,10.671500748771937,44.64643012552016,53.95946900389973,68.27482909312377,74.02960687901833,65.33368339306237,54.30539702665763,53.69989673572809,43.750299795032696,16.98759093947731,0.0,0.0,0.0,0.0,0.0,0.0,0.0,0.0,0.0,0.0,0.0,0.0,0.0,1.526375837643479,5.671957062197762,27.9110888902291,26.258461949389297,36.25780182474404,49.77222491529066,40.58518463790102,51.77481991419064,25.516357964801347,7.954577007987184,0.0138876213515949,0.0,0.0,0.0,0.0,0.0,0.0,0.0,0.0,0.0,0.0,0.0,0.0,0.0,0.0,0.7282163632363595,0.3641081816181797,4.383438302976145,28.429223417746787,19.732542425171644,45.52892533686242,49.393976610114485,32.7005507410846,3.5852788285690256,16.80553684866822,0.0,0.0,0.0,0.0,0.0,0.0,0.0,0.0,0.0,0.0,0.0,0.0,0.0,5.055599176393339,31.67842180960721,59.96750650280608,80.33029443513375,87.64982839404345,86.82995372988657,78.30118670456253,65.51649499049063,64.60142699452372,47.69943430301352,20.166593717960588,0.0,0.0,0.0,0.0,0.0,0.0,0.0,0.0,0.0,0.0,0.0,0.0,0.0,5.34976424684076,31.06206392380279,57.11069653967981,75.70849404932295,86.5034683770209,86.12017002771687,80.00355658006168,65.13622666766334,64.33680468222424,46.20108621027962,19.45226497607582,0.0,0.0,0.0,0.0,0.0,0.0,0.0,0.0,0.0,0.0,0.0,0.0,0.0,3.557251083659443,28.12117072594777,44.11440797665089,60.9338324466707,73.91623338834803,73.95814875460921,73.98617649951879,44.352517557279135,31.076204047360772,42.601919760359,18.667993123020292,0.0,0.0,0.0,0.0,0.0,0.0,0.0,0.0,0.0,0.0,0.0,0.0,0.0,2.0306227438095714,17.295643631276327,38.86261458589047,46.397280424646695,56.53625402013657,55.17779214974419,59.53825275193861,43.82958548783999,25.558273331062523,7.99649237424836,7.9265492630776,0.0,0.0,0.0,0.0,0.0,0.0,0.0,0.0,0.0,0.0,0.0,0.0,0.0,4.341522936714967,21.28694600772471,28.681220619726638,47.51738021220443,65.98943162306404,65.07941367122498,59.88342326807734,51.84476302536142,50.13633309690884,29.101384291163978,6.750141483494314,0.0,0.0,0.0,0.0,0.0,0.0,0.0,0.0,0.0,0.0,0.0,0.0,0.0,2.310647690699004,12.81423447221984,33.77898766458754,34.85742458809049,43.62430119404278,53.09136641832185,61.64816118855546,54.42180054380464,48.20368120917961,34.95539544417083,10.853554839581028,0.0,0.0,0.0,0.0,0.0,0.0,0.0,0.0,0.0,0.0,0.0,0.0,0.0,6.246147079534614,31.56631082996888,56.60644963351372,74.53208626973966,80.09647739201417,78.15650294029956,65.48947725440662,57.302598216538215,57.47606723232996,42.20978383383124,18.3319126863117,0.0,0.0,0.0,0.0,0.0,0.0,0.0,0.0,0.0,0.0,0.0,0.0,0.0,6.83422471822306,33.820903030848726,61.00402806004785,76.79778856770079,80.49719839355929,78.89582940061719,64.27494164165805,58.65979757589862,57.283660551058766,45.57084070312361,21.875023646413155,0.0,0.0,0.0,0.0,0.0,0.0,0.0,0.0,0.0,0.0,0.0,0.0,0.0,6.652170627413971,30.922177701461276,52.76917360296485,79.67555621395765,83.59918799909282,83.16665171954223,71.55710527402164,62.93844746322183,62.317292035495946,42.81200159607767,18.40210829968885,0.0,0.0,0.0,0.0,0.0,0.0,0.0,0.0,0.0,0.0,0.0,0.0,0.0,7.072334298851317,3.1651151571316807,61.829962777158165,27.0849016709124,33.162882280989514,45.7390071725811,87.54352496515216,86.93600465657148,72.02549686687999,48.371847678637096,21.7911929138908,0.0,0.0,0.0,0.0,0.0,0.0,0.0,0.0,0.0,0.0,0.0,0.0,0.0,7.828578406997258,34.82939684318091,56.68321030425708,65.50942492871162,69.80600247268872,64.0403670919193,57.864668127968216,56.83370161926709,55.36792631115784,48.49784627962703,21.875023646413155,0.0,0.0,0.0,0.0,0.0,0.0,0.0,0.0,0.0,0.0,0.0,0.0,0.0,8.304797568253768,36.818104220729296,63.65075618745546,81.50038965955723,83.89688810042972,82.728560391451,69.07500858518205,62.25568149713615,61.90015839053531,49.84216802646142,22.827461968926176,1.1622676560252994,0.0,0.0,0.0,0.0,0.0,0.0,0.0,0.0,0.0,0.0,0.0,0.0,8.40276842433411,35.921721388035444,62.418292918053005,78.82386627179528,82.00589907675527,81.0832560145966,66.33106710831328,61.113109013209474,60.36999501979594,46.70533311644572,21.034948805744857,0.7981594744071194,0.0,0.0,0.0,0.0,0.0,0.0,0.0,0.0,0.0,0.0,0.0,0.0,8.262629699786197,32.29452719320524,61.15805440594736,79.34957586550476,82.56039392199351,81.30343793857097,69.0588484439729,61.64816118855546,61.136086713991205,45.78092253884228,20.53070189957877,0.7143287418847647,0.0,0.0,0.0,0.0,0.0,0.0,0.0,0.0,0.0,0.0,0.0,0.0,8.668905749871948,35.47352997168852,60.83586159059036,79.44779922379149,84.48244071705425,84.14484526710729,75.03936320238248,65.49124476985138,65.0069455379903,47.97971175210934,21.875023646413155,1.2604910143120345,0.0,0.0,0.0,0.0,0.0,0.0,0.0,0.0,0.0,0.0,0.0,0.0,7.884633896816423,30.487873906465936,60.82172146703237,70.76500585256794,81.42665901529057,78.8612365983414,76.51498609654104,58.04571220995175,56.41025541914664,34.49331640647231,21.04883642709645,1.0642967999449569,0.0,0.0,0.0,0.0,0.0,0.0,0.0,0.0,0.0,0.0,0.0,0.0,8.822932095771456,34.5072040278239,46.76138860626488,54.12763547335722,57.50283246620757,74.8090811901524,75.39135127809381,56.186285962076376,66.46565078432054,45.09462154186709,20.810726846468203,0.9521858203066268,0.0,0.0,0.0,0.0,0.0,0.0,0.0,0.0,0.0,0.0,0.0,0.0,7.520525715198244,26.986678312625656,52.040957239728485,65.31424072317013,70.49735351379175,66.9547475581031,50.50246129617816,49.73763211301488,49.82878540952261,43.359426379536906,21.10489191691562,1.1902954009348818,0.0,0.0,0.0,0.0,0.0,0.0,0.0,0.0,0.0,0.0,0.0,0.0,6.582227516243211,23.49962284234337,23.56956595351413,13.402312110908287,36.08963535528655,48.94603769597396,86.88499921088015,82.85102396155143,68.81821384128074,48.02162711837051,21.594998699523725,1.5544035825530615,0.0,0.0,0.0,0.0,0.0,0.0,0.0,0.0,0.0,0.0,0.0,0.0,10.181393966163832,36.95799044307082,61.69007655481664,59.81348015690658,83.23482731526823,82.32127433253969,81.5627577045362,68.51142366051367,60.96085018275471,49.18389477439582,22.47724140865959,1.8346810316488864,0.0,0.0,0.0,0.0,0.0,0.0,0.0,0.0,0.0,0.0,0.0,0.0,10.62958538251076,36.87390720834207,60.45761328541419,72.59438433788259,69.64515856721661,63.88305821733668,49.60708847230988,49.312923401862456,49.58663579359207,47.16741215414424,22.42118591884043,1.820540908090899,0.0,0.0,0.0,0.0,0.0,0.0,0.0,0.0,0.0,0.0,0.0,0.0,10.489446657962846,36.18785871357328,52.90905982530636,57.3066382518405,69.2201973538578,69.6729338099198,65.72354679973259,49.13667686180039,49.70758435045415,29.857628399309924,14.312582564953734,0.7143287418847647,0.0,0.0,0.0,0.0,0.0,0.0,0.0,0.0,0.0,0.0,0.0,0.0,1.456432726472719,6.07798061007712,9.60720394882698,18.10794322924143,9.705174804907324,6.4420887916953,22.099245605689816,30.613872507455863,2.3247878142569918,17.32367137618591,8.22071433352502,0.0138876213515949,0.0,0.0,0.0,0.0,0.0,0.0,0.0,0.0,0.0,0.0,0.0,0.0,5.797955663187687,18.037747615864284,28.863274710535723,27.042733802444825,40.47307365826269,32.92477270036126,30.964093067722448,33.807015409497126,32.574552140094674,10.055395365173906,4.649575628513983,0.0,0.0,0.0,0.0,0.0,0.0,0.0,0.0,0.0,0.0,0.0,0.0,0.0,1.7225700520105565,7.296303755921584,27.238928016811904,39.45094472678531,66.59190188751687,67.67892388603717,66.31869450020004,54.72783321795251,45.50847265814462,29.283438381973067,14.060585362973884,0.8403273428746896,0.0,0.0,0.0,0.0,0.0,0.0,0.0,0.0,0.0,0.0,0.0,0.0,12.450126290601656,13.514423090546616,41.50959521550446,65.84954540072252,71.55054021665543,71.60785821750657,67.26759779182356,50.73501582826577,50.56583934998271,27.308871127982663,13.780560416084452,1.1344924133221097,0.0,0.0,0.0,0.0,0.0,0.0,0.0,0.0,0.0,0.0,0.0,0.0,14.844857216029409,44.94059519596758,71.03518321340806,76.58417170109261,74.47805079757164,62.19432346098274,54.45462583063568,54.53239651020461,55.07931628925106,53.86149814781938,25.20830527300233,2.744951485694336,0.0,0.0,0.0,0.0,0.0,0.0,0.0,0.0,0.0,0.0,0.0,0.0,14.662803125220318,43.33013612359536,67.68397393016501,79.46749439589013,78.17291558371508,72.10124752879777,57.35865370635738,57.31194079817474,57.62958857381668,50.01033449591891,24.29803481895688,2.618952884704411,0.0,0.0,0.0,0.0,0.0,0.0,0.0,0.0,0.0,0.0,0.0,0.0,14.480749034411229,42.111812977750894,65.52735258536552,81.51402477870242,79.98083138148634,52.54520414589458,79.81493743188638,69.0525358888131,60.07507244272935,50.75243848050686,24.87222483629373,3.122947288664111,0.0,0.0,0.0,0.0,0.0,0.0,0.0,0.0,0.0,0.0,0.0,0.0,14.270667198692555,41.369456490956544,65.10718891392817,81.92661338394798,44.01643712057054,74.93836231982543,76.31096431377578,57.404609107920834,36.6638253726234,28.527194273827124,14.07447298432548,1.3304341254827945,0.0,0.0,0.0,0.0,0.0,0.0,0.0,0.0,0.0,0.0,0.0,0.0,1.582431327462644,3.5011955938402783,3.837276030548875,12.996036060822536,28.891302455445302,39.61885869403641,50.96252031622554,40.207188834931245,39.7870251634939,18.864187337387374,9.467065224279068,0.6022177622464346,0.0,0.0,0.0,0.0,0.0,0.0,0.0,0.0,0.0,0.0,0.0,0.0,0.6161053835980296,2.646980629613994,9.915256640625994,15.39101948845668,15.937181760883949,17.029506305738487,11.70776980380731,13.220258020099196,11.3858294906567,6.218119334625032,2.8709500866842603,0.0,0.0,0.0,0.0,0.0,0.0,0.0,0.0,0.0,0.0,0.0,0.0,0.0,0.2661373255378373,0.2519972019798498,4.43949379279531,7.478357846730673,13.262425888566767,9.523120714098232,11.371689367098716,6.83422471822306,13.948474383335556,11.553743457907805,5.587873827469014,0.1401387245479124,0.0,0.0,0.0,0.0,0.0,0.0,0.0,0.0,0.0,0.0,0.0,0.0,15.167050031386411,41.38359661451454,63.720699298626215,79.37785611262073,49.84216802646142,43.14808203278627,57.82477277935818,45.43070197857569,71.89924576368367,23.68167693315246,24.4379210412984,3.276973634563618,0.0,0.0,0.0,0.0,0.0,0.0,0.0,0.0,0.0,0.0,0.0,0.0,4.21527183351865,20.69861586682987,41.6075660715848,47.69943430301352,41.63559381649438,45.41681435722409,53.38527898656288,45.82283790510345,61.4519669741884,35.1793649012411,18.037747615864284,2.5068419050660813,0.0,0.0,0.0,0.0,0.0,0.0,0.0,0.0,0.0,0.0,0.0,0.0,16.80553684866822,43.87629839602263,60.00942186906727,70.345094683337,82.20689083304383,84.89376681126784,82.59902675957159,67.67639886397325,61.35399611810804,36.13180322375412,18.40210829968885,2.688895995875171,0.0,0.0,0.0,0.0,0.0,0.0,0.0,0.0,0.0,0.0,0.0,0.0,16.25937457624095,37.686206806307176,47.58757582558157,53.53955783466877,56.1582582171668,62.46046078652057,75.47063697090111,64.11283522515397,37.02793355424159,20.44661866485002,10.15336622125425,1.0784369235029443,0.0,0.0,0.0,0.0,0.0,0.0,0.0,0.0,0.0,0.0,0.0,0.0,8.024520119157943,19.522460589452976,30.894149956551686,82.94899481763177,87.21375708360338,89.46986429772159,80.81333115596286,69.20883475457013,69.5085548735582,49.00184068358673,11.7219099273653,3.445140104021113,0.0,0.0,0.0,0.0,0.0,0.0,0.0,0.0,0.0,0.0,0.0,0.0,16.87547995983898,42.13958822045409,39.058808800257545,54.4917436549754,69.92467850969327,79.60005805424625,79.05793581712128,69.44239929548333,57.81517769551526,47.99359937346093,13.976502128245135,2.0025949988999887,0.0,0.0,0.0,0.0,0.0,0.0,0.0,0.0,0.0,0.0,0.0,0.0,2.8709500866842603,14.578719890491572,25.460302474982186,27.742922420771603,40.86520958479046,58.95926519268029,64.61708213132007,62.72634560985202,71.11522641283453,33.45679484923055,10.881582584490609,1.4284049815631368,0.0,0.0,0.0,0.0,0.0,0.0,0.0,0.0,0.0,0.0,0.0,0.0,18.89221508229696,47.32143850004375,71.28314038008564,87.93869091815662,87.98969636384795,89.22796718399742,69.51410992209883,67.32264327281716,67.41935161786553,53.53955783466877,26.650597875917065,3.977414755096788,0.0,0.0,0.0,0.0,0.0,0.0,0.0,0.0,0.0,0.0,0.0,0.1959417121606848,19.298238630176314,46.01903211947053,69.14040665663774,82.97702256254135,87.6076605255759,89.00071519824405,73.84578527276449,64.69914534839768,64.39412268307537,50.6963829906877,25.82441065660036,4.117300977438308,0.0,0.0,0.0,0.0,0.0,0.0,0.0,0.0,0.0,0.0,0.0,0.7143287418847647,20.208509084221763,47.419409356124085,70.12087272406033,75.46558692677324,73.40037138068789,61.56155293176279,53.39335905716744,53.16383455155653,53.62136854954,52.50303627742701,26.972790691274064,4.383438302976145,0.0,0.0,0.0,0.0,0.0,0.0,0.0,0.0,0.0,0.0,0.0,0.5181345275176872,17.43578235582424,33.652989063597616,50.79460634897443,57.11069653967981,71.04503079945738,61.01791568139944,77.0818535498925,43.47027484814327,45.44484210213368,49.63208619074275,24.325810061660075,3.9632746315388,0.0,0.0,0.0,0.0,0.0,0.0,0.0,0.0,0.0,0.0,0.0,0.0,16.133375975251024,24.900000078996925,23.16354240563477,25.60044119953009,40.65512774907178,53.021170804944695,31.594338574878464,29.619518818681662,30.43181841664677,18.89221508229696,5.727760049810534,2.338675435608586,0.0,0.0,0.0,0.0,0.0,0.0,0.0,0.0,0.0,0.0,0.0,0.0,6.470116536604881,19.340406498643883,18.3319126863117,68.32987457411737,75.37039359496322,77.36415101663945,62.86623183219354,55.54215283356877,56.04942976621157,49.91084862660021,26.81876434537456,4.39732592432774,0.0,0.0,0.0,0.0,0.0,0.0,0.0,0.0,0.0,0.0,0.0,1.582431327462644,22.309327441408488,51.41071173257247,75.34110333902167,81.86348783234983,82.07180215262376,71.46822449737144,62.994755455247386,62.00166427750515,61.05579101235834,40.4591860369111,22.1272733505994,4.733658863242731,0.0,0.0,0.0,0.0,0.0,0.0,0.0,0.0,0.0,0.0,0.0,1.6526269408397969,22.379270552579246,50.5284690234366,74.23817370149864,83.84815517459595,83.09292107527557,77.92420091041832,63.60555829251117,62.62155719419907,62.56019915804566,52.6850903682361,27.364926617801824,4.859657464232654,0.0,0.0,0.0,0.0,0.0,0.0,0.0,0.0,0.0,0.0,0.0,1.946539509080824,23.009516059735265,50.78046622541645,72.90773957601584,85.40382126818098,84.6036417761227,82.26395633168855,65.49806232942397,65.23217750609253,65.64426110692531,52.97925543868352,27.406841984063004,4.733658863242731,0.0,0.0,0.0,0.0,0.0,0.0,0.0,0.0,0.0,0.0,0.0,2.0866782336287364,22.58935238829792,50.0242221172705,72.73957310655835,87.2882452344892,84.76953572572266,88.5772689981236,68.66873253509628,66.98883535596609,67.08377618556972,52.489148656075415,27.224787893253914,4.789461850855503,0.0,0.0,0.0,0.0,0.0,0.0,0.0,0.0,0.0,0.0,0.0,2.2126768346186614,21.875023646413155,48.23170895408919,49.42200435502408,44.352517557279135,49.89822351628059,22.43532604239841,69.9948741230704,86.87919166013312,72.03938448823158,51.116546662125046,25.67038431070085,4.873545085584249,0.0,0.0,0.0,0.0,0.0,0.0,0.0,0.0,0.0,0.0,0.0,2.142733723447902,21.230890517905543,30.613872507455863,54.70182549069407,84.58748163491359,72.73982560876475,89.17317420521023,89.28856771353166,73.6670137106385,68.92855730547431,52.895172203954765,26.986678312625656,4.943488196755009,0.0,0.0,0.0,0.0,0.0,0.0,0.0,0.0,0.0,0.0,0.0,2.492701781508093,21.60913882308171,46.481111157169046,55.35984624055328,67.33400587210483,29.56371583106889,63.63686856610386,73.59202055533989,67.43197672818516,39.24086289106664,25.460302474982186,11.903964018174388,4.55160477243364,0.0,0.0,0.0,0.0,0.0,0.0,0.0,0.0,0.0,0.0,0.0,2.0866782336287364,3.66910956109138,14.746886359949066,19.186127650537983,23.72384480162003,45.13678941033466,66.89970207710948,39.70294192876516,37.36426649315656,22.561324643388332,18.864187337387374,11.371689367098716,4.943488196755009,0.0,0.0,0.0,0.0,0.0,0.0,0.0,0.0,0.0,0.0,0.0,1.344321746834389,7.716467427358927,49.5482554582204,52.69923049179408,62.71245798850042,66.54973401904928,62.76851347831959,70.63900725157802,63.09045379147019,59.05723604876064,40.89323732970004,26.35668530767604,5.363651868192355,0.0,0.0,0.0,0.0,0.0,0.0,0.0,0.0,0.0,0.0,0.0,0.1401387245479124,1.3024063805732118,5.293708757021595,8.164658843705856,8.458823914153275,13.500282966988628,16.66539812412031,38.86286708809686,34.24131920449246,25.950409257590287,16.791396725110232,4.80360197441349,0.0,0.0,0.0,0.0,0.0,0.0,0.0,0.0,0.0,0.0,0.0,0.0,3.389084614201948,24.774001478007,51.83087540400981,72.19341083413107,84.0102615911,83.34087824195313,79.35235338977508,63.02556072442729,62.03171204006588,61.76077717260658,53.21736501931177,28.20525396067652,5.46187522647909,0.0,0.0,0.0,0.0,0.0,0.0,0.0,0.0,0.0,0.0,0.0,3.683249684649368,24.788141601564988,50.26233169789876,70.72283798410038,83.98955641017582,77.45934434844948,83.81835991424161,65.6753188783116,62.94375000955608,62.26704409642381,16.04929274052228,27.78509028923917,5.685844683549358,0.0,0.0,0.0,0.0,0.0,0.0,0.0,0.0,0.0,0.0,0.0,3.781220540729711,25.61432882088169,53.41355923367885,76.10088247805712,84.84932642294274,84.73620543447883,77.15709920739751,65.41549410793358,64.6673300703922,65.08825124844873,55.36009874275968,23.961701880041897,5.699732304900952,0.0,0.0,0.0,0.0,0.0,0.0,0.0,0.0,0.0,0.0,0.0,3.977414755096788,25.82441065660036,53.343363620301695,65.73162687033717,69.58607305092073,68.00237921242613,58.93249995880268,57.85254802206137,56.74911338012557,56.14588560905356,49.14450443019856,17.757722668974846,5.811843284539282,0.0,0.0,0.0,0.0,0.0,0.0,0.0,0.0,0.0,0.0,0.0,4.145328722347891,25.92238151268071,51.46676722239163,74.4482555372173,86.20677828450955,86.73349788704458,84.15873288845887,68.47455833838036,66.92823482643186,50.556496768346186,52.8391167141356,27.93911663513868,6.218119334625032,0.0,0.0,0.0,0.0,0.0,0.0,0.0,0.0,0.0,0.0,0.0,4.369298179418157,26.0905479821382,51.63493369184913,72.17952321277949,83.62873075724075,82.51393351601726,78.87335670424825,62.55085657640913,61.747142053461374,61.173204538330914,53.0072831835931,28.83549946783253,6.358005556966552,0.0,0.0,0.0,0.0,0.0,0.0,0.0,0.0,0.0,0.0,0.0,4.467521537704893,26.66473799947505,52.20912370918597,74.51819864838808,80.47270567953919,78.97966013313955,69.28862545179021,59.43851438041351,58.799178793827366,58.47875349391511,54.72985323560365,28.793331599364965,6.232006955976627,0.0,0.0,0.0,0.0,0.0,0.0,0.0,0.0,0.0,0.0,0.0,2.3528155591665736,9.845313529455234,31.790280287039156,54.36574505398547,68.44021803831096,73.04787830056377,76.87101420755464,81.96246869725574,77.60453311712526,60.10335268984532,50.82263409388403,27.15484478208316,6.07798061007712,0.0,0.0,0.0,0.0,0.0,0.0,0.0,0.0,0.0,0.0,0.0,4.55160477243364,17.701667179155685,38.37250780328236,52.47500853251742,49.78611253664226,81.92105833540735,44.12829559800248,82.1937607183114,54.01552449371889,49.63208619074275,28.97538569017405,15.09685441800926,4.859657464232654,0.0,0.0,0.0,0.0,0.0,0.0,0.0,0.0,0.0,0.0,0.0,1.3584618703923768,8.738848861042708,41.63559381649438,30.78203897691336,59.99553424771567,69.75676454244216,71.12911403418613,34.19915133602489,33.55501820751727,33.61082119513004,24.283894695398896,13.822475782345627,4.117300977438308,0.0,0.0,0.0,0.0,0.0,0.0,0.0,0.0,0.0,0.0,0.0,4.845517340674668,12.800094348661853,36.92996269816124,51.25668538667296,33.93301401048705,72.1893707988288,72.89435695907703,63.314423248540464,55.61209594473952,36.5097990267239,25.57241345462051,13.108147040460864,4.341522936714967,0.0,0.0,0.0,0.0,0.0,0.0,0.0,0.0,0.0,0.0,0.0,0.1401387245479124,13.038203929290106,3.0949195437545285,4.76143410594592,18.289997320050524,36.91607507680964,47.62949119184275,37.65843156360398,33.876958520667884,38.54067427273986,31.258258138169865,17.729694924065264,5.09776704486091,0.0,0.0,0.0,0.0,0.0,0.0,0.0,0.0,0.0,0.0,0.0,0.0,15.671044435346111,16.567427268039967,15.881126271064783,62.46020828431418,52.69923049179408,30.936065322812865,39.43680460322732,25.7544675454296,22.533296898478756,21.09075179335763,5.363651868192355,2.940893197855021,0.0,0.0,0.0,0.0,0.0,0.0,0.0,0.0,0.0,0.0,0.0,1.3864896153019592,4.25743970198622,10.531362024224023,39.59083094912683,85.72576158133157,85.47881442347956,86.90545188959797,74.10182251004663,65.59022563475729,65.08269619990807,54.05769236218647,29.549575707510908,6.708226117233136,0.0,0.0,0.0,0.0,0.0,0.0,0.0,0.0,0.0,0.0,0.0,5.433847481569507,28.27519707184728,53.41330673147246,72.8097687199355,86.29591156336613,88.47424809791539,89.33351310626954,69.06667601237108,68.26599151590004,67.45141939807739,52.26492669679875,28.51330665247553,6.358005556966552,0.0,0.0,0.0,0.0,0.0,0.0,0.0,0.0,0.0,0.0,0.0,5.405819736659924,27.953004256490274,52.6850903682361,71.59144557409105,84.3635121778433,84.85513397368976,83.10251615911848,65.51927251476096,65.19430217513363,65.94701125239007,52.39117779999507,28.84938708918413,6.582227516243211,0.0,0.0,0.0,0.0,0.0,0.0,0.0,0.0,0.0,0.0,0.0,5.783815539629699,28.20525396067652,53.21711251710537,72.58554676065884,83.19190194018148,82.98131510005004,75.49184715623808,63.16443693794324,62.41728290922743,62.912187233757,53.53955783466877,29.50766034124973,6.83422471822306,0.0,0.0,0.0,0.0,0.0,0.0,0.0,0.0,0.0,0.0,0.0,5.89592651926803,28.05122761477701,52.51692389877859,63.81841765250016,68.43718801183424,63.64974617862988,54.74348835474886,54.51042881824846,54.59324954194524,54.70258299731325,48.684445410151184,28.58324976364629,6.988251064122569,0.0,0.0,0.0,0.0,0.0,0.0,0.0,0.0,0.0,0.0,0.0,5.951982009087194,27.897201268877502,50.66860774798451,73.13170903308611,86.48705573360536,84.11151497586347,86.58755161174963,68.05717219121333,67.79658991421614,68.28795920785619,51.900818515180575,28.723388488194203,7.030166430383746,0.0,0.0,0.0,0.0,0.0,0.0,0.0,0.0,0.0,0.0,0.0,5.433847481569507,23.527650587252957,44.39443292354032,63.44067435173677,45.57084070312361,48.95992531732555,84.30745668802413,83.03307805236051,76.19885333413744,56.27036919680512,51.14457440703463,25.15224978318317,7.184445278489646,0.0,0.0,0.0,0.0,0.0,0.0,0.0,0.0,0.0,0.0,0.0,6.596115137594807,24.956055568816087,41.25734551131822,56.50847877743338,58.24493645079552,70.73697810765836,78.87360920645463,74.85427908509666,59.68748155591665,34.591287262552655,25.06816654845442,17.953916883341925,5.181597777383264,0.0,0.0,0.0,0.0,0.0,0.0,0.0,0.0,0.0,0.0,0.0,1.5544035825530615,17.953916883341925,33.288880881979445,44.5906271379074,63.35659111700803,67.02570067809943,75.10627628707653,86.89333178369112,80.34418205648535,67.80997253115494,49.57603070092358,27.168732403434756,7.506385591640257,0.0,0.0,0.0,0.0,0.0,0.0,0.0,0.0,0.0,0.0,0.0,4.985656065222581,15.671044435346111,32.574552140094674,46.77527622761647,43.41421935832411,44.96862294087717,67.17997952620532,64.15500309362154,72.59968688421684,58.58101688750413,50.30449956636633,27.981032001399857,7.772522917178094,0.0,0.0,0.0,0.0,0.0,0.0,0.0,0.0,0.0,0.0,0.0,6.750141483494314,27.86917352396792,52.1810959642764,71.75935954134214,66.98378531183822,87.48519695547546,89.49789204263115,88.91486444807056,69.19545213763132,35.59952857267844,50.97666043978353,28.14919847085735,7.688439682449347,0.0,0.0,0.0,0.0,0.0,0.0,0.0,0.0,0.0,0.0,0.0,6.5541997713336295,27.61692381978168,51.45262709883364,42.29386706855998,71.80607244952478,79.62833830136222,81.45039422269149,62.46248080417171,60.19248596870192,54.58971451105574,41.14548703388628,22.281299696498905,5.839871029448864,0.0,0.0,0.0,0.0,0.0,0.0,0.0,0.0,0.0,0.0,0.0,4.0193301213579655,1.0642967999449569,15.040798928190094,29.619518818681662,66.98378531183822,45.62689619294277,39.74485729502633,61.2699128833793,61.98424162526406,32.280387069647254,21.86113602506156,15.586961200617363,8.122743477444677,0.0,0.0,0.0,0.0,0.0,0.0,0.0,0.0,0.0,0.0,0.0,7.296303755921584,31.230230393260285,57.97879912525769,78.42567029231411,90.52431351161722,90.44805784528664,88.0429743293968,71.76945962959785,71.54094513281251,70.98140024344644,56.04614723752846,30.656040375923435,8.22071433352502,0.0,0.0,0.0,0.0,0.0,0.0,0.0,0.0,0.0,0.0,0.0,7.310443879479571,30.039682490119013,53.98749674880931,72.94965494227702,85.69369380111972,89.84079003891236,91.25454989250473,77.59519053548874,69.63101844365862,69.58152801120566,52.99314306003512,29.96973937894825,8.192686588615437,0.0,0.0,0.0,0.0,0.0,0.0,0.0,0.0,0.0,0.0,0.0,4.145328722347891,29.57760345242049,53.343363620301695,72.17952321277949,85.3858936115271,90.05491190993331,91.224502129944,66.57776176395889,84.57914906210263,71.01296301924552,52.76917360296485,29.661686687149235,8.080575608977108,0.0,0.0,0.0,0.0,0.0,0.0,0.0,0.0,0.0,0.0,0.0,7.296303755921584,28.625417632113862,51.70487680301989,69.95295875680922,82.61291438092319,89.6572209348649,91.54795745633297,79.19580202181163,81.95868116415986,17.015618684386894,26.776596476906988,29.423577106520984,8.640878004962364,0.0,0.0,0.0,0.0,0.0,0.0,0.0,0.0,0.0,0.0,0.0,7.632384192630181,23.401651986263023,51.13068678568303,69.15429427798932,81.52058983606862,88.57878401136196,78.52364114839445,59.78545241199699,23.135514660725192,62.29229431706308,40.41727067064992,29.017553558641627,8.808791972213468,0.0,0.0,0.0,0.0,0.0,0.0,0.0,0.0,0.0,0.0,0.0,7.562441081459421,28.12117072594777,50.96252031622554,69.10379383671079,73.18700701628609,76.5066535237301,49.63208619074275,71.91767842475032,56.1751758649951,53.28200558414828,46.42556067176268,24.81616934647457,8.598710136494796,0.0,0.0,0.0,0.0,0.0,0.0,0.0,0.0,0.0,0.0,0.0,7.464470225379079,28.681220619726638,52.85325683769359,71.91338588724166,85.09172854107968,89.56909766483386,91.10229106204994,79.66141609039967,70.23197369487309,68.77579347060677,51.43873947748205,29.549575707510908,8.668905749871948,0.0,0.0,0.0,0.0,0.0,0.0,0.0,0.0,0.0,0.0,0.0,7.548553460107826,28.359280306576025,51.00468818469312,71.18516952400529,84.96572994008974,91.64517080579412,92.57639894297016,79.38517867660612,68.16751565540692,64.78600610739674,50.78046622541645,29.283438381973067,8.738848861042708,0.0,0.0,0.0,0.0,0.0,0.0,0.0,0.0,0.0,0.0,0.0,4.705631118333147,27.420982107620997,46.481111157169046,62.334209683324254,81.2403123869728,81.8988381412448,74.95250244338341,82.68285749209393,70.05092961288958,62.530403897691336,45.45872972348527,28.821359344274548,8.850959840681037,0.0,0.0,0.0,0.0,0.0,0.0,0.0,0.0,0.0,0.0,0.0,7.730607550916916,23.97584200359988,50.19238858672801,67.71200167507459,79.79801978405807,83.35350335227277,80.94589481431899,77.1328589955838,47.75548979283269,55.61209594473952,49.64622631430073,24.1157282259414,9.228955643650812,0.0,0.0,0.0,0.0,0.0,0.0,0.0,0.0,0.0,0.0,0.0,7.940689386635588,27.560868329962517,49.32403349894373,66.89970207710948,79.30766049924357,82.09073981810319,84.98567761439477,67.1224090231478,62.24255138240372,58.06288235998644,45.991004374560944,22.029049992312665,8.346712934514946,0.0,0.0,0.0,0.0,0.0,0.0,0.0,0.0,0.0,0.0,0.0,6.820337096871467,28.10703060238978,44.10026785309289,57.516720087559165,72.20729845548267,62.23623882724392,64.86907933329991,69.08460366902497,61.49413484265596,60.90580470176112,44.884539706148416,17.519613088346595,8.5848225151432,0.0,0.0,0.0,0.0,0.0,0.0,0.0,0.0,0.0,0.0,0.0,6.526172026424046,26.860679711635736,43.512190214404455,59.30923325074049,69.84665532791793,76.34681962708353,66.5876093500082,58.15353065208139,57.21573745753915,57.28214553782041,50.50018877632063,30.347987684124416,8.612850260052783,0.0,0.0,0.0,0.0,0.0,0.0,0.0,0.0,0.0,0.0,0.0,7.1703051549316585,21.987134626051485,43.568245704223614,59.02920830385105,68.73438310875838,75.00855793320257,68.49273849724062,57.04378345498576,56.25521906442156,56.34940238740601,40.375102802182354,26.95890306992247,8.76687660595229,0.0,0.0,0.0,0.0,0.0,0.0,0.0,0.0,0.0,0.0,0.0,7.184445278489646,27.0849016709124,39.058808800257545,57.74068954462944,65.2473276384761,56.17239834072478,29.843740777958324,54.25363407434715,68.07610985669278,54.743740856955256,42.81200159607767,26.79073660046497,8.892875206942215,0.0,0.0,0.0,0.0,0.0,0.0,0.0,0.0,0.0,0.0,0.0,7.422302356911508,26.398600673937214,46.64927762662655,58.56712926615253,71.96944137706082,75.06461342302175,81.36631098796273,73.2998755025436,64.95316256802866,51.95687400499974,40.97732056442879,26.118575727047777,3.543110960101455,0.0,0.0,0.0,0.0,0.0,0.0,0.0,0.0,0.0,0.0,0.0,6.778169228403896,28.289337195405267,50.45852591226584,68.02005436687362,80.13410022076667,87.01049280745731,87.73466913539139,80.67773747113,65.92277104057638,66.14901301750417,50.96252031622554,29.885656144219507,9.593063825268992,0.0,0.0,0.0,0.0,0.0,0.0,0.0,0.0,0.0,0.0,0.0,6.960223319212986,28.12117072594777,49.73030954902948,67.23603501602447,79.39199623617871,85.7351041629681,41.98556187455458,47.867600772471015,59.42134423037882,67.12392403638614,49.78611253664226,29.32560625044064,8.907015330500203,0.0,0.0,0.0,0.0,0.0,0.0,0.0,0.0,0.0,0.0,0.0,8.15077122235426,15.377131867105083,48.63773250196854,65.80737753225495,77.935563509706,65.83540527716454,61.43807935283679,38.42856329310153,9.285011133469975,31.24411801461188,34.38120542683398,24.2700070740473,9.089069421309294,0.0,0.0,0.0,0.0,0.0,0.0,0.0,0.0,0.0,0.0,0.0,7.49249797028866,28.84938708918413,52.012929494818906,66.07275735117362,69.86963302869967,69.23029744211351,57.914663564833965,57.73866952697829,56.76325350368354,56.733963247742,50.14315065648144,31.454199850330557,9.705174804907324,0.0,0.0,0.0,0.0,0.0,0.0,0.0,0.0,0.0,0.0,0.0,7.842466028348854,27.855033400409933,49.365948865204906,66.5355938954913,78.60747188091679,85.45583672269785,85.68914876140465,81.75339687036264,63.12151156285649,62.33572469656261,37.04207367779957,25.264108260615107,10.055395365173906,0.0,0.0,0.0,0.0,0.0,0.0,0.0,0.0,0.0,0.0,0.0,7.660411937539763,28.219141582028108,31.97233437784824,67.59989069543627,43.94624150719339,87.3465732441659,88.25684369821134,67.34789349345641,79.55991020342982,67.698114053723,51.3546562427533,30.5439293962851,9.915256640625994,0.0,0.0,0.0,0.0,0.0,0.0,0.0,0.0,0.0,0.0,0.0,7.660411937539763,27.92497651158069,49.67425405921031,67.23603501602447,78.59358425956522,64.44891566186259,88.84492133689979,85.62375068994895,78.84558146154505,67.3620336170144,50.626439879516944,30.277792070747267,10.195281587515428,0.0,0.0,0.0,0.0,0.0,0.0,0.0,0.0,0.0,0.0,0.0,7.912661641726006,19.9845396271515,49.170007153044224,66.07351485779279,77.85148027497725,84.78367584928066,86.8564664615578,84.23751357685339,75.86529791949279,48.76398360516487,34.563259517643075,28.793331599364965,9.354954244640735,0.0,0.0,0.0,0.0,0.0,0.0,0.0,0.0,0.0,0.0,0.0,7.912661641726006,27.50506534234974,48.62384488061696,65.97554400171244,78.14539284321827,46.439195790907874,62.01226937017365,13.612393946626955,74.93836231982543,67.0398408016574,52.22301133053758,31.090091668712372,9.635231693736564,0.0,0.0,0.0,0.0,0.0,0.0,0.0,0.0,0.0,0.0,0.0,7.74449517226851,27.61692381978168,49.5341153346624,66.92772982201906,79.29377287789198,59.72939692217784,89.6572209348649,71.11522641283453,33.77898766458754,3.5991664499206206,5.503790592740267,5.083626921302922,2.9830610663225907,0.0,0.0,0.0,0.0,0.0,0.0,0.0,0.0,0.0,0.0,0.0,7.74449517226851,27.644951564691254,48.91775744885798,65.06047600574554,69.33205583128974,71.19956214976966,38.442450914453126,57.516720087559165,76.44933552287894,58.2936693766293,51.07463129586387,26.35668530767604,10.727556238591102,0.0,0.0,0.0,0.0,0.0,0.0,0.0,0.0,0.0,0.0,0.0,4.411466047885728,27.042733802444825,48.0635424846317,53.09136641832185,78.04742198713794,54.85585183659358,34.53523177273349,52.15306821936681,66.60578950886847,44.10026785309289,12.07187798542549,0.7701317294975369,9.929144261977587,0.0,0.0,0.0,0.0,0.0,0.0,0.0,0.0,0.0,0.0,0.0,7.74449517226851,27.32301125154065,49.04400855205429,66.8716743321999,78.0893373533991,61.32596837319846,43.750299795032696,64.63096975267166,67.5299475842655,67.55797532917508,49.5482554582204,13.136174785370448,5.965869630438789,0.0,0.0,0.0,0.0,0.0,0.0,0.0,0.0,0.0,0.0,0.0,7.730607550916916,27.406841984063004,48.847814337687225,66.3815675495918,78.71958286055514,57.46066459774,19.9845396271515,76.60487688201681,69.40654398217556,50.71052311424569,6.008037498906359,10.531362024224023,7.618496571278586,0.0,0.0,0.0,0.0,0.0,0.0,0.0,0.0,0.0,0.0,0.0,4.775574229503908,17.281503507718337,14.424693544592063,15.699072180255692,26.118575727047777,37.168072278789495,71.89924576368367,63.0765661701186,19.102296918015632,3.641081816181798,16.273262197592544,11.805740659887656,7.114249665112494,0.0,0.0,0.0,0.0,0.0,0.0,0.0,0.0,0.0,0.0,0.0,7.534413336549838,27.364926617801824,48.94603769597396,66.81587134458714,77.83734015141927,69.82670765361291,87.75259679204525,85.07784091972808,78.14539284321827,66.8716743321999,51.88693089382898,31.300173504431044,10.265224698686188,0.0979708560803424,0.0,0.0,0.0,0.0,0.0,0.0,0.0,0.0,0.0,0.0,6.6241428825043895,27.364926617801824,49.78611253664226,68.02005436687362,81.21253714426962,64.71505298740041,81.01659543210893,62.096100102696,73.03373817700577,65.34529849455643,52.61514725706534,30.99212081263203,11.35780174574712,0.0979708560803424,0.0,0.0,0.0,0.0,0.0,0.0,0.0,0.0,0.0,0.0,6.162063844805867,27.182872526992732,48.48395865827544,61.13002666103778,72.53252129731639,75.19035952180526,70.63622972730771,61.196434741319045,55.41615423257883,57.86694064782575,51.872790770271,31.55217070641089,10.251337077334592,0.1121109796383299,0.0,0.0,0.0,0.0,0.0,0.0,0.0,0.0,0.0,0.0,7.352359245740748,28.17722621576693,50.50044127852702,67.95011125570285,72.59968688421684,76.46473815746889,91.55452251369915,90.6376870022875,83.63529581460695,71.89924576368367,53.14742190814101,32.33644255946642,10.069282986525502,0.2100818357186724,0.0,0.0,0.0,0.0,0.0,0.0,0.0,0.0,0.0,0.0,6.4420887916953,22.75751885775541,41.03337605424795,59.56148295492672,70.09284497915075,76.29682419021779,80.59643176067158,85.90402813904478,78.73372298411311,67.61403081899425,51.5086825886528,31.342088870692223,10.391475801882503,0.0840832347287474,0.0,0.0,0.0,0.0,0.0,0.0,0.0,0.0,0.0,0.0,6.83422471822306,25.25022063926351,40.73921098380053,39.31080600223739,33.37296411670819,54.47785603362381,74.42022779230774,54.47785603362381,69.04243580055739,55.83606540180979,43.54021795931404,10.895470205842203,8.920902951851797,0.0,0.0,0.0,0.0,0.0,0.0,0.0,0.0,0.0,0.0,0.0,6.6241428825043895,20.90869770254854,49.38008898876289,24.199811460670148,8.962818318112975,6.568087392685224,26.860679711635736,50.50044127852702,85.65203093706492,61.91404601188691,39.95493913074501,28.47139128621436,11.511828091646628,0.2239694570702673,0.0,0.0,0.0,0.0,0.0,0.0,0.0,0.0,0.0,0.0,0.0,6.301950067147386,25.23633301791191,38.70858823999096,69.84084777717091,81.14259403309885,88.42728268752637,77.38914873507234,68.27230407105985,37.47612497058851,46.5651943918978,24.14375597085098,10.349307933414934,0.1121109796383299,0.0,0.0,0.0,0.0,0.0,0.0,0.0,0.0,0.0,0.0,6.232006955976627,26.972790691274064,40.9634329430772,66.04548711288321,77.9491986288512,85.11975628598925,77.71134155042934,73.77609466380012,79.47582696870107,67.33400587210483,51.38268398766289,31.5382830850593,10.685388370123531,0.2100818357186724,0.0,0.0,0.0,0.0,0.0,0.0,0.0,0.0,0.0,0.0,7.240248266102419,26.70665336573623,48.32967981016953,65.86343302207412,74.438407951168,83.04974319798242,63.00510804570949,52.194983585628,62.805378800452914,57.30891077169803,48.81170652217308,32.126360723747744,10.69952849368152,0.3360804367085973,0.0,0.0,0.0,0.0,0.0,0.0,0.0,0.0,0.0,0.0,6.750141483494314,26.580654764746303,48.66576024687813,57.2927506304889,43.80635528485188,17.49158534343701,62.28345673983933,62.21199861543022,62.21124110881104,49.87802333976917,17.43578235582424,25.06816654845442,10.797499349761862,0.3360804367085973,0.0,0.0,0.0,0.0,0.0,0.0,0.0,0.0,0.0,0.0,7.01627880903215,26.21654658312812,48.02162711837051,59.27489295067109,60.97499030631271,59.86069806950199,42.92537508674797,14.088613107883466,10.293252443595769,31.720337175868387,40.87934970834844,22.505269153569174,7.590468826369003,0.0,0.0,0.0,0.0,0.0,0.0,0.0,0.0,0.0,0.0,0.0,6.021925120257954,26.258461949389297,48.2178213327376,60.01320940216316,61.52292009418471,18.639965378110716,16.69342586902989,15.951069382235543,29.661686687149235,38.54042177053346,41.13159941253468,31.314313627989037,10.783611728410268,0.0,0.0,0.0,0.0,0.0,0.0,0.0,0.0,0.0,0.0,0.0,4.285467446895804,24.059925238328628,46.08897523064129,66.03159949153161,55.76612229063904,24.199811460670148,64.96705018938026,67.17997952620532,53.14742190814101,54.54779914479457,26.384713052585617,31.77639266568756,6.064092988725523,0.0,0.0,0.0,0.0,0.0,0.0,0.0,0.0,0.0,0.0,0.0,7.520525715198244,15.09685441800926,38.75050360625213,51.49479496730121,2.927005576503426,6.750141483494314,9.635231693736564,20.726643611739448,44.00229699701255,66.07351485779279,42.41986566954991,1.456432726472719,10.909610329400191,0.0,0.0,0.0,0.0,0.0,0.0,0.0,0.0,0.0,0.0,0.0,6.5541997713336295,25.950409257590287,47.32143850004375,65.09330129257658,77.08109604327332,87.65462593596492,90.18924308373418,84.32134430937573,77.79542478515809,57.60080332228792,50.65446762442653,31.006008433983624,12.015822495606328,0.0,0.0,0.0,0.0,0.0,0.0,0.0,0.0,0.0,0.0,0.0,6.904167829393821,24.97019569237408,45.36075886740493,64.2390863283503,73.49455470367234,67.43197672818516,73.60792819434262,70.866006735125,61.91581352733166,61.86884811694262,49.45003209993366,30.376015429034,10.4053634232341,0.0,0.0,0.0,0.0,0.0,0.0,0.0,0.0,0.0,0.0,0.0,6.806196973313479,25.18027752809275,45.79481016019387,63.13262165993776,67.62791844034585,77.62725831570059,74.8262513401871,73.87406551988046,66.35353980468221,57.782857413097005,44.56259939299781,30.221736580928106,11.35780174574712,0.0,0.0,0.0,0.0,0.0,0.0,0.0,0.0,0.0,0.0,0.0,6.526172026424046,24.689918243278253,44.81459659497767,61.73199192107781,74.88230683000626,62.72634560985202,52.33512231017591,84.09737485230546,12.81423447221984,20.25067695268933,22.75751885775541,31.482227595240136,10.573529892691594,0.0,0.0,0.0,0.0,0.0,0.0,0.0,0.0,0.0,0.0,0.0,6.568087392685224,24.81616934647457,45.22062014285702,62.23623882724392,74.70025273919715,82.15083534322464,55.68203905591028,52.26492669679875,78.14564534542468,66.25556894860188,50.626439879516944,31.51025534014972,12.00193487425473,0.0840832347287474,0.0,0.0,0.0,0.0,0.0,0.0,0.0,0.0,0.0,0.0,6.19009158971545,25.20830527300233,46.52302652343023,64.32291706087264,77.01115293210256,84.32159681158214,78.49536090127846,74.22428608014704,45.52892533686242,59.07112367011224,47.04141355315431,29.67557430850083,11.74993767227488,0.0840832347287474,0.0,0.0,0.0,0.0,0.0,0.0,0.0,0.0,0.0,0.0,5.951982009087194,23.89175876887113,37.70034692986516,57.11069653967981,70.56906414040726,67.95011125570285,70.06481723424118,51.032715929602695,62.12412784760558,52.33512231017591,45.71097942767152,29.63365894223965,4.0892732325287255,0.0,0.0,0.0,0.0,0.0,0.0,0.0,0.0,0.0,0.0,0.0,1.5124882162918842,8.024520119157943,22.505269153569174,26.06252023722861,53.273420509130936,74.30836931487579,69.3366008710048,68.95835256582865,62.69831786494243,48.13373809800885,33.45679484923055,25.516357964801347,9.817285784545652,0.0,0.0,0.0,0.0,0.0,0.0,0.0,0.0,0.0,0.0,0.0,6.134036099896283,15.671044435346111,24.2700070740473,42.01358961946416,63.80478253335496,64.30902943952105,60.051589737534826,74.91058707712223,73.98617649951879,55.38812648766925,44.01643712057054,22.75751885775541,8.080575608977108,0.0,0.0,0.0,0.0,0.0,0.0,0.0,0.0,0.0,0.0,0.0,5.237653267202429,23.947814258690297,44.030324741922136,61.2699128833793,55.948176381448114,65.02310567919942,28.27519707184728,80.39998504409813,71.36722361481438,51.83087540400981,13.27631350991836,5.854011153006852,0.0,0.0,0.0,0.0,0.0,0.0,0.0,0.0,0.0,0.0,0.0,0.0,6.091868231428714,23.97584200359988,44.07224010818331,61.802187534454966,75.41432897887553,46.411168045998295,75.83474515251928,76.57710163931364,48.81978659277764,60.989887936489865,39.75899741858432,26.56676714339471,7.632384192630181,0.0,0.0,0.0,0.0,0.0,0.0,0.0,0.0,0.0,0.0,0.0,5.727760049810534,24.31192244030848,45.85086565001304,56.326424686624286,65.34529849455643,69.0005204342962,56.3122845630663,53.4973899662012,66.57776176395889,67.57211545273307,45.7248670490231,29.815713033048745,11.665854437546134,0.0840832347287474,0.0,0.0,0.0,0.0,0.0,0.0,0.0,0.0,0.0,0.0,5.89592651926803,24.04578511477064,45.0807339205155,63.06242604656061,76.01654674112197,83.77543453915487,76.21274095548905,85.76388941449686,78.98572018609298,68.0341944904316,51.77481991419064,31.58019845132048,10.713416115033114,0.0,0.0,0.0,0.0,0.0,0.0,0.0,0.0,0.0,0.0,0.0,5.797955663187687,23.947814258690297,39.39488923696614,54.36574505398547,50.65446762442653,20.838754591377786,13.780560416084452,33.93301401048705,66.7176479863004,48.88998220615479,40.23521657984084,31.3701166156018,8.626737881404377,0.0,0.0,0.0,0.0,0.0,0.0,0.0,0.0,0.0,0.0,0.0,4.985656065222581,16.87547995983898,45.8930335184806,26.10443560348979,61.88627076918373,61.521910085359146,14.480749034411229,21.062976550654444,40.19304871137327,39.01664093178997,31.132259537179944,17.35169912109549,3.389084614201948,0.0,0.0,0.0,0.0,0.0,0.0,0.0,0.0,0.0,0.0,0.0,2.5628973948852463,17.841805903703595,6.470116536604881,17.365586742447086,20.838754591377786,39.53477545930767,41.29951337978579,45.85086565001304,48.455678411159454,48.98795306223513,6.162063844805867,15.50313046809501,9.649119315088155,0.0,0.0,0.0,0.0,0.0,0.0,0.0,0.0,0.0,0.0,0.0,1.876596397910064,14.186583963963807,21.412944608714632,35.739667297226354,81.7306716717873,68.6783276189392,89.54510995522656,59.14131928348938,37.12615691252831,64.8971070782095,52.76917360296485,31.986474501406228,11.147719910028448,0.0,0.0,0.0,0.0,0.0,0.0,0.0,0.0,0.0,0.0,0.0,4.691490994775159,24.507864152469164,47.76962991639067,68.73438310875838,82.68285749209393,36.35577268082439,75.52643995851388,88.90072432451257,81.7306716717873,70.65289487292961,53.81958278155821,24.40989329638882,10.22330933242501,0.0,0.0,0.0,0.0,0.0,0.0,0.0,0.0,0.0,0.0,0.0,5.09776704486091,24.1157282259414,46.25714170009878,64.60294200776208,77.45934434844948,85.21772714206959,61.21385739356013,86.54816126755239,53.63752869074912,68.8464940883967,51.92884626009016,31.468339973888543,11.34366162218913,0.0,0.0,0.0,0.0,0.0,0.0,0.0,0.0,0.0,0.0,0.0,5.377791991750342,23.471595097433788,38.24650920229244,57.46066459774,67.698114053723,75.66657868306177,85.84797264922561,83.77518203694846,38.55456189409145,50.38833029888869,51.0185758060447,30.94995294416446,9.873088772158424,0.0,0.0,0.0,0.0,0.0,0.0,0.0,0.0,0.0,0.0,0.0,5.181597777383264,23.079459170906024,44.15632334291206,62.32032206197266,75.34463836991117,83.08913354217967,85.76414191670324,85.06344829396369,78.49561340348487,67.5440877078235,51.45287960104003,31.0481763024512,11.02146880683213,0.0,0.0,0.0,0.0,0.0,0.0,0.0,0.0,0.0,0.0,0.0,4.6215478836044,23.24762564036352,45.57084070312361,64.16889071497314,57.27861050693092,30.894149956551686,89.37694348576908,86.31005168692414,82.90707945137059,71.45130684954313,54.43568816515624,32.126360723747744,10.265224698686188,0.0,0.0,0.0,0.0,0.0,0.0,0.0,0.0,0.0,0.0,0.0,4.159468845905877,23.14965478428318,42.503696402072265,44.4363482898015,20.71275599038786,52.85325683769359,76.03068686467995,68.8603817097483,56.95641769157392,56.662505123332885,38.54067427273986,26.06252023722861,10.167253842605843,0.0,0.0,0.0,0.0,0.0,0.0,0.0,0.0,0.0,0.0,0.0,3.879191396810053,18.934130448558136,39.19869502259907,58.81912646813238,64.95316256802866,75.79282978625808,87.89273551659318,73.6359559392522,67.80997253115494,62.69831786494243,51.38268398766289,26.832651966726157,9.663259438646143,0.0,0.0,0.0,0.0,0.0,0.0,0.0,0.0,0.0,0.0,0.0,4.0193301213579655,23.06557154955443,45.94883650609338,64.49108353033013,77.58509044723301,85.27378263188875,61.4519669741884,11.13357978647046,38.47047865936271,65.84929289851611,54.30968956416631,28.135058347299363,9.929144261977587,0.0,0.0,0.0,0.0,0.0,0.0,0.0,0.0,0.0,0.0,0.0,4.4955492826144745,18.26196957514094,37.85437327576467,49.68814168056191,68.31421943732103,43.232165267515015,35.711639552316775,50.584524513255765,56.10220272734762,47.76962991639067,31.748364920777973,14.340610309863315,5.811843284539282,0.0,0.0,0.0,0.0,0.0,0.0,0.0,0.0,0.0,0.0,0.0,2.2126768346186614,15.71321230381368,17.25372826501515,18.19202646397018,52.33512231017591,44.64643012552016,45.64078381429436,68.58035676285887,64.5610266415009,61.549937830268725,36.299717191005215,15.167050031386411,9.901116517068008,0.0,0.0,0.0,0.0,0.0,0.0,0.0,0.0,0.0,0.0,0.0,4.173356467257473,22.57546476694632,33.204797647250686,33.14874215743153,78.48147327992687,64.2249462047923,63.79089491200336,87.1784067747084,80.02198924112834,69.02854817920579,36.57999464010105,23.233485516805533,3.221170646950846,0.0,0.0,0.0,0.0,0.0,0.0,0.0,0.0,0.0,0.0,0.0,4.0892732325287255,22.58935238829792,44.68859799398773,63.23059251601811,76.38090742494654,83.99940399622514,86.71632773700988,84.74176048301948,31.300173504431044,68.59424438421047,51.00468818469312,30.473986285114343,9.887228895716412,0.0,0.0,0.0,0.0,0.0,0.0,0.0,0.0,0.0,0.0,0.0,3.781220540729711,22.351242807669667,44.730513360248914,63.10459391502818,73.2933104451774,80.79565600151538,66.40959529450137,67.32718831253221,60.97448530189991,61.54665530158563,51.27057300802456,30.43181841664677,8.51487940397244,0.0,0.0,0.0,0.0,0.0,0.0,0.0,0.0,0.0,0.0,0.0,3.5292233387498606,17.617836446633326,44.618654882816976,63.25862026092769,76.6331571291328,84.2233734532954,86.91226944917058,84.93770219518018,78.32769943623376,49.88433589492899,50.836521715235605,29.745769921877983,9.733202549816903,0.0,0.0,0.0,0.0,0.0,0.0,0.0,0.0,0.0,0.0,0.0,2.1147059785383187,11.847908528355225,38.176313588915285,35.921721388035444,55.12198916213142,68.5243012730397,29.21349527080231,26.80462422181657,34.53523177273349,59.25317776092132,52.194983585628,30.31995993921484,9.915256640625994,0.0,0.0,0.0,0.0,0.0,0.0,0.0,0.0,0.0,0.0,0.0,3.66910956109138,21.846995901503576,44.63254250416857,63.80478253335496,76.63290462692639,67.10978391282816,86.98448508019887,60.989887936489865,46.80330397252605,54.93993507132232,51.24279776532137,29.885656144219507,8.710821116133124,0.0,0.0,0.0,0.0,0.0,0.0,0.0,0.0,0.0,0.0,0.0,3.6971373060009625,21.833108280151976,44.730513360248914,63.524757586465526,76.7869309728259,65.54124020671712,65.14910428018935,41.46742734703689,28.961498068822458,34.465288661562724,44.77268122871648,29.409689485169388,9.439037479369484,0.0,0.0,0.0,0.0,0.0,0.0,0.0,0.0,0.0,0.0,0.0,3.781220540729711,21.53894320970456,43.82024290620347,62.72634560985202,76.64704475048438,84.55970639221039,61.521910085359146,86.12799759611505,55.738094545729446,61.802187534454966,36.972130566628806,17.85569352505519,6.400173425434121,0.0,0.0,0.0,0.0,0.0,0.0,0.0,0.0,0.0,0.0,0.0,3.711277429558951,21.510915464794977,43.
...